@<TRIPOS>MOLECULE
Protein
41 40 2
SMALL
USER_CHARGES


@<TRIPOS>ATOM
1 N -1.45 0 0 N.4 0 ARG1 0
2 CA 0 0 0 C.3 0 ARG1 0
3 C 0.494864 0 1.43719 C.2 0 ARG1 0
4 O 1.23478 -0.910695 1.83814 O.2 0 ARG1 0
5 1H -1.78354 0.824115 0.47941 H 0 ARG1 0
6 1HB 0.120725 1.16168 -1.79704 H 0 ARG1 0
7 1HD 2.13999 2.13962 -2.82357 H 0 ARG1 0
8 1HG 2.55385 1.20772 0.0452868 H 0 ARG1 0
9 1HH1 3.20677 4.12278 -3.32673 H 0 ARG1 0
10 1HH2 6.59443 2.16294 -2.23044 H 0 ARG1 0
11 2H -1.78473 0.00755776 -0.95287 H 0 ARG1 0
12 2HB 0.276868 2.11916 -0.31484 H 0 ARG1 0
13 2HD 2.30375 3.20073 -1.39858 H 0 ARG1 0
14 2HG 2.36541 0.153356 -1.37231 H 0 ARG1 0
15 2HH1 4.73324 4.69199 -3.92789 H 0 ARG1 0
16 2HH2 6.71263 3.53606 -3.2796 H 0 ARG1 0
17 3H -1.79789 -0.826468 0.467719 H 0 ARG1 0
18 CB 0.562971 1.18451 -0.799871 C.3 0 ARG1 0
19 CD 2.60129 2.24632 -1.83901 C.3 0 ARG1 0
20 CG 2.09007 1.11662 -0.938381 C.3 0 ARG1 0
21 CZ 4.8075 3.04491 -2.69409 C.2 0 ARG1 0
22 HA 0.337032 -0.92191 -0.476527 H 0 ARG1 0
23 HE 4.52815 1.44898 -1.46036 H 0 ARG1 0
24 NE 4.06669 2.19218 -1.96708 N.3 0 ARG1 0
25 NH1 4.21081 4.03221 -3.37117 N.3 0 ARG1 0
26 NH2 6.13752 2.90607 -2.73975 N.3 0 ARG1 0
27 N 0.132896 0.980465 2.26779 N.3 1 ASN2 0
28 CA 0.60497 0.980466 3.63879 C.3 1 ASN2 0
29 C 0.414376 -0.407751 4.22779 C.2 1 ASN2 0
30 H -0.475743 1.72959 1.93797 H 1 ASN2 0
31 1HB 0.142963 3.05025 3.97578 H 1 ASN2 0
32 1HD2 -0.691139 3.79006 6.31736 H 1 ASN2 0
33 2HB -1.13999 1.94194 4.48197 H 1 ASN2 0
34 2HD2 0.319857 3.19301 7.62179 H 1 ASN2 0
35 CB -0.0601954 2.09526 4.46198 C.3 1 ASN2 0
36 CG 0.464547 2.16574 5.895 C.2 1 ASN2 0
37 HA 1.67854 1.17477 3.61968 H 1 ASN2 0
38 ND2 -0.015366 3.13101 6.67243 N.3 1 ASN2 0
39 O 0.974664 -1.32506 3.58728 O.2 1 ASN2 0
40 OD1 1.28766 1.35697 6.30932 O.2 1 ASN2 0
41 OXT -0.564359 -0.575292 4.98866 O.2 1 ASN2 0
@<TRIPOS>BOND
1 1 2 1
2 1 5 1
3 1 11 1
4 1 17 1
5 2 3 1
6 2 22 1
7 2 18 1
8 3 27 1
9 3 4 2
10 6 18 1
11 7 19 1
12 8 20 1
13 9 25 1
14 10 26 1
15 12 18 1
16 13 19 1
17 14 20 1
18 15 25 1
19 16 26 1
20 18 20 1
21 19 20 1
22 19 24 1
23 21 24 1
24 21 25 ar
25 21 26 ar
26 23 24 1
27 27 28 1
28 27 30 1
29 28 29 1
30 28 37 1
31 28 35 1
32 29 39 2
33 29 41 1
34 31 35 1
35 32 38 1
36 33 35 1
37 34 38 1
38 35 36 1
39 36 40 2
40 36 38 1
@<TRIPOS>SUBSTRUCTURE
1 ARG1 1 RESIDUE
@<TRIPOS>SUBSTRUCTURE
2 ASN2 27 RESIDUE

